18
Winmostar
P  0.000000  0.000000  0.000000 
Li -0.471635 0.356622  -2.274397
H  -0.336506 -1.291823 0.349795 
C  1.892720  0.000000  0.000000 
C  2.705878  -1.150422 0.001879 
C  2.531344  1.276960  0.000000 
C  3.941320  1.391167  0.019412 
C  4.112931  -1.047440 0.017042 
C  4.723275  0.219055  0.029824 
O  1.656871  2.420919  -0.022520
H  4.434022  2.368669  0.023791 
H  2.233122  -2.141791 -0.007663
H  4.727730  -1.956997 0.015977 
H  5.818212  0.305801  0.042769 
C  2.336634  3.722961  -0.148899
H  2.949335  3.933338  0.752211 
H  2.967226  3.749792  -1.060113
H  1.530804  4.474137  -0.235357
