14
Winmostar
P  0.000000  0.000000  0.000000 
Li -0.619004 -0.077653 2.265680 
H  -0.322402 1.273714  -0.422030
C  1.895679  0.000000  0.000000 
C  2.647743  1.196655  0.000000 
C  2.564381  -1.244920 0.032095 
C  3.971544  -1.293450 0.067665 
C  4.055768  1.143624  0.028524 
C  4.719361  -0.098764 0.063897 
H  4.483525  -2.264979 0.093681 
H  2.136704  2.168321  -0.028514
H  4.634681  2.077287  0.026473 
H  5.816851  -0.136568 0.086419 
H  1.983348  -2.177885 0.027348 
