14
Winmostar
P  0.000000  0.000000  0.000000 
Li -0.619946 -2.246171 -0.304763
C  1.897416  0.000000  0.000000 
C  2.594481  1.231441  0.000000 
C  2.618660  -1.211189 0.078239 
C  4.026445  -1.191678 0.143285 
C  4.001171  1.245334  0.059313 
C  4.719808  0.034535  0.132600 
H  2.077679  -2.167298 0.088651 
H  4.581158  -2.138052 0.203223 
H  2.039159  2.178016  -0.046419
H  4.537022  2.204281  0.054586 
H  5.816853  0.047430  0.184366 
H  -0.322402 0.630028  -1.184703
