13
Winmostar
P  0.000000  0.000000  0.000000 
Li -0.557749 1.440629  1.770876 
H  -0.302610 0.707987  -1.145243
C  1.946295  0.000000  0.000000 
C  2.445029  -0.673576 1.310967 
C  2.530910  -0.691910 -1.264324
H  2.248113  1.063194  0.000000 
H  3.542451  -0.597787 1.375978 
H  2.007859  -0.181540 2.193164 
H  2.168688  -1.739021 1.327529 
H  3.631281  -0.642710 -1.232566
H  2.233049  -1.750508 -1.305837
H  2.188472  -0.191586 -2.182092
