14
Winmostar
P  0.000000  0.000000  0.000000 
H  1.968477  2.180504  0.004589 
H  4.469421  2.293155  -0.011015
H  5.823911  0.179050  -0.007059
H  4.666994  -2.047973 0.015762 
H  2.160457  -2.162011 0.031929 
H  -0.244028 -0.411801 -1.294322
C  1.905644  0.000000  0.000000 
C  2.558689  1.253881  0.000000 
C  3.966822  1.316492  -0.007813
C  4.726531  0.130030  -0.004746
C  4.076895  -1.121434 0.007741 
C  2.670129  -1.188525 0.009301 
Cl -0.353494 -1.913854 0.981326 
