20
14b_R2
Cl -0.371692 -2.146815 0.050752 
P  0.000000  0.000000  0.000000 
H  -0.233646 0.203375  -1.344786
C  1.913092  0.000000  0.000000 
C  2.591128  1.283702  0.000000 
C  4.037971  1.300275  0.048610 
C  2.644650  -1.178428 0.070714 
C  1.894969  2.544714  -0.049171
C  4.756680  0.052450  0.111632 
C  4.075925  -1.153724 0.125725 
C  4.724758  2.567205  0.037842 
C  2.587764  3.745940  -0.055308
C  4.019204  3.759279  -0.014832
H  2.113331  -2.140625 0.084459 
H  0.797042  2.541249  -0.071790
H  5.854219  0.078980  0.150747 
H  4.624720  -2.103819 0.178127 
H  5.822788  2.567920  0.072686 
H  2.039845  4.697325  -0.089737
H  4.551367  4.720077  -0.022233
