17
14d_R2
P  0.000000  0.000000  0.000000 
H  1.972232  2.177394  0.007979 
H  4.468614  2.289451  -0.015795
C  6.281491  0.188010  -0.013306
H  4.664021  -2.047026 0.007103 
H  2.167249  -2.164773 0.022402 
H  -0.229992 -0.661832 -1.188900
C  1.903256  0.000000  0.000000 
C  2.560183  1.249374  0.000000 
C  3.968276  1.311657  -0.012135
C  4.744202  0.130771  -0.010981
C  4.075057  -1.119684 0.001007 
C  2.671312  -1.188387 0.004154 
Cl -0.350663 -1.676661 1.345566 
H  6.689012  -0.320608 0.876269 
H  6.688545  -0.318456 -0.904523
H  6.634052  1.229854  -0.012271
