17
14e_R2
P  0.000000  0.000000  0.000000 
H  1.974351  2.179103  -0.000736
H  4.495186  2.275904  -0.008088
C  6.313981  0.186819  -0.010187
H  4.664599  -2.060744 0.010405 
H  2.162782  -2.169692 0.012257 
H  -0.209369 -1.092578 -0.816601
C  1.905266  0.000000  0.000000 
C  2.563239  1.251235  0.000000 
C  3.971611  1.309052  -0.003829
C  4.727751  0.119404  -0.002022
C  4.073323  -1.133943 0.006090 
C  2.667761  -1.193665 0.006855 
Cl -0.331850 -0.946589 1.930570 
F  6.844889  -0.423250 1.140413 
F  6.833437  -0.485053 -1.131502
F  6.757364  1.517735  -0.048574
