20
14f_R3
Cl -0.309179 -0.427820 -2.114351
P  0.000000  0.000000  0.000000 
C  1.906385  0.000000  0.000000 
H  -0.225915 -1.254061 0.529804 
C  2.553518  1.255588  0.000000 
C  2.671508  -1.186761 -0.001158
C  3.966053  1.336798  0.000182 
H  1.955587  2.177017  0.001121 
C  4.084366  -1.128226 0.001007 
C  4.714924  0.137965  0.001834 
H  2.168972  -2.163371 -0.000664
C  4.664315  2.708383  -0.000178
C  4.913923  -2.425058 -0.000374
H  5.812375  0.190208  0.004224 
H  4.372906  3.292653  -0.888883
H  4.380244  3.291068  0.892044 
H  5.757732  2.588730  -0.004390
H  4.670897  -3.043999 0.879299 
H  4.698850  -3.023552 -0.901466
H  5.989958  -2.198254 0.018135 
