20
14f_R2
Cl -0.372341 -2.146686 0.046955 
P  0.000000  0.000000  0.000000 
H  -0.225915 0.208514  -1.345319
C  1.910944  0.000000  0.000000 
C  2.548625  1.260528  0.000000 
C  2.679210  -1.179274 0.041568 
C  3.959405  1.348725  0.022735 
H  1.949266  2.180810  -0.019526
C  4.092770  -1.112812 0.069150 
C  4.716869  0.154585  0.056663 
H  2.168624  -2.152145 0.053134 
C  4.650463  2.724446  0.018093 
C  4.925014  -2.407399 0.110241 
H  5.813418  0.214994  0.077965 
H  4.379845  3.294519  -0.886365
H  4.340203  3.318480  0.893854 
H  5.743907  2.609724  0.043688 
H  4.646516  -3.020010 0.983538 
H  4.746850  -3.013180 -0.794106
H  5.999271  -2.179141 0.170680 
