20
4590860
Cl -0.301741 -0.463498 -2.103767
P  0.000000  0.000000  0.000000 
C  1.908558  0.000000  0.000000 
H  -0.217409 -1.248830 0.545488 
C  2.558824  1.256459  0.000000 
C  2.677470  -1.186864 -0.005561
C  3.969765  1.324313  -0.003725
H  1.965856  2.182556  0.004684 
C  4.087254  -1.115896 -0.008170
C  4.732024  0.138506  -0.006758
H  2.181855  -2.168284 -0.005024
C  4.699898  2.736515  -0.003718
C  4.948929  -2.452133 -0.010930
H  5.831413  0.190975  -0.006932
F  4.358409  3.471649  -1.152074
F  4.322578  3.490877  1.121013 
F  6.093384  2.573793  0.020049 
F  4.660033  -3.229013 1.124974 
F  4.659956  -3.225995 -1.148269
F  6.321129  -2.159975 -0.010148
