29
Winmostar
P  0.000000  0.000000  0.000000 
O  1.747972  2.388121  -0.098792
H  4.566066  2.212944  0.078444 
H  5.819911  0.072069  0.199780 
H  4.604338  -2.124847 0.190125 
H  2.075557  -2.146498 0.072285 
H  -0.205231 0.152435  -1.356113
C  1.909826  0.000000  0.000000 
C  2.598412  1.250890  0.000000 
C  4.015629  1.266422  0.073866 
C  4.722964  0.049305  0.142494 
C  4.044338  -1.182524 0.137952 
C  2.634501  -1.199197 0.069962 
O  -0.191528 -1.800426 -0.040568
C  2.475149  3.665443  0.027028 
H  3.020982  3.739959  0.989861 
H  3.189657  3.823284  -0.807624
H  1.697881  4.451618  -0.010738
C  -0.816889 -2.369130 1.104084 
C  -1.159171 -1.702960 2.310607 
C  -1.075818 -3.766531 0.982503 
C  -1.664552 -4.469122 2.044211 
C  -1.752518 -2.425462 3.362537 
C  -2.007655 -3.804180 3.240360 
H  -0.805921 -4.275367 0.048149 
H  -1.859857 -5.544960 1.937946 
H  -0.965735 -0.628616 2.411652 
H  -2.015594 -1.898633 4.290080 
H  -2.468303 -4.357461 4.068180 
