25
Winmostar
P  0.000000  0.000000  0.000000 
H  2.126093  2.172705  0.050861 
H  4.621772  2.110342  -0.051601
H  5.827350  -0.087159 -0.169406
H  4.519246  -2.231342 -0.176874
H  2.005189  -2.164512 -0.059383
C  1.909647  0.000000  0.000000 
C  2.645047  1.206506  0.000000 
C  4.052585  1.170834  -0.057040
C  4.730384  -0.063427 -0.122443
C  3.996988  -1.266176 -0.127291
C  2.590047  -1.234414 -0.070158
H  -0.205207 0.670325  1.188678 
O  -0.102799 -1.669081 0.694298 
C  -1.176517 -2.468469 0.212904 
C  -2.211749 -2.068765 -0.672673
C  -1.167949 -3.802085 0.718661 
C  -2.170492 -4.706196 0.338106 
C  -3.206733 -2.992297 -1.044499
C  -3.195179 -4.308632 -0.546582
H  -0.366396 -4.102381 1.405714 
H  -2.152134 -5.730816 0.733828 
H  -2.225505 -1.046063 -1.066981
H  -4.000992 -2.673080 -1.733221
H  -3.976235 -5.019563 -0.843481
