49
Winmostar
P  0.000000  0.000000  0.000000 
H  1.989908  2.165914  -0.027351
C  4.787294  2.648074  0.039869 
H  5.799165  0.103816  0.109836 
C  4.843325  -2.541193 0.138916 
H  2.103262  -2.159303 0.046357 
H  -0.219221 -1.002712 -0.922448
C  1.909119  0.000000  0.000000 
C  2.580781  1.243585  0.000000 
C  3.991446  1.296401  0.035614 
C  4.705248  0.069950  0.077629 
C  4.057900  -1.184941 0.082364 
C  2.640534  -1.202126 0.041763 
O  -0.227744 -1.123702 1.409978 
C  5.642089  2.740940  1.355723 
C  5.741665  2.692442  -1.207766
C  3.840217  3.894711  -0.020274
C  4.431115  -3.321149 1.439936 
C  4.485127  -3.406738 -1.123206
C  6.395526  -2.329298 0.164344 
H  4.988421  2.703495  2.240351 
H  6.362028  1.912053  1.417992 
H  6.201070  3.689272  1.375286 
H  5.158623  2.637903  -2.139727
H  6.315979  3.631853  -1.210762
H  6.451545  1.852852  -1.191397
H  3.229403  3.884999  -0.935201
H  3.171369  3.926836  0.852491 
H  4.448028  4.811957  -0.022087
H  3.408746  -3.629537 -1.157839
H  4.760864  -2.874544 -2.046408
H  5.035920  -4.359279 -1.091589
H  6.740297  -1.805401 -0.739633
H  6.702547  -1.751320 1.048537 
H  6.894657  -3.309171 0.205004 
H  4.675022  -2.728751 2.334954 
H  3.352186  -3.533874 1.446076 
H  4.974931  -4.276726 1.494247 
C  -0.688795 -0.514066 2.606311 
C  -0.845570 0.876584  2.848920 
C  -0.986265 -1.440025 3.650614 
C  -1.433083 -0.976541 4.896683 
C  -1.298446 1.320669  4.104907 
C  -1.593590 0.405344  5.132504 
H  -0.858943 -2.513104 3.458680 
H  -1.660484 -1.699859 5.691621 
H  -0.622228 1.595466  2.051997 
H  -1.419759 2.398725  4.278472 
H  -1.944360 0.763472  6.108264 
